43
02/04/2022 11:57, XYZ structure generated by mol3D Class, molSimplify
Fe         0.00000        0.00000        0.00000
O          0.00000        2.13709        0.00000
C          0.88776        2.97789       -0.00962
C          0.50499        4.42709       -0.01785
C          2.33763        2.61341       -0.01299
C          2.87745        1.36683       -0.00828
O          2.12315        0.24369        0.00000
C          4.36974        1.19228       -0.01237
H         -0.60051        4.54272       -0.01422
H          0.91061        4.91607       -0.92819
H          0.91805        4.92815        0.88240
H          4.90968        2.16352       -0.01913
H          4.66895        0.61898       -0.91433
H          4.67504        0.62814        0.89333
H          3.02165        3.45824       -0.02006
O          0.00000       -2.13709        0.00000
C         -0.01962       -2.93291        0.93014
C         -0.03432       -4.39833        0.61459
C         -0.02934       -2.51182        2.37021
C         -0.02017       -1.25473        2.89306
O          0.00000       -0.13585        2.13277
C         -0.03284       -1.06156        4.38373
H         -0.02497       -4.56580       -0.48404
H         -0.94978       -4.86260        1.03739
H          0.86055       -4.88482        1.05619
H         -0.04922       -2.02470        4.93748
H         -0.93273       -0.47823        4.66981
H          0.87419       -0.49865        4.68777
H         -0.04594       -3.33898        3.07536
O         -2.13709        0.00000        0.00000
C         -2.89631        0.03589       -0.96117
C         -4.37196        0.06142       -0.69739
C         -2.43020        0.05672       -2.39138
C         -1.16472        0.04058       -2.90078
O         -0.04806        0.00000       -2.13655
C         -0.95852        0.06849       -4.38993
H         -4.57928        0.04274        0.39399
H         -4.85063       -0.82409       -1.16585
H         -4.81236        0.98566       -1.12739
H         -1.91532        0.10128       -4.95340
H         -0.40186       -0.84069       -4.69949
H         -0.36279        0.96526       -4.66036
H         -3.24312        0.08980       -3.11248
