43
02/04/2022 11:57, XYZ structure generated by mol3D Class, molFemplify
Fe         0.00000        0.00000        0.00000
O          0.00000        2.13709        0.00000
C          0.81963        2.70567       -0.96363
C          0.35430        4.07308       -1.37161
C          1.94060        2.17066       -1.47141
C          2.52255        0.90007       -1.14563
O          2.12315        0.24369        0.00000
C          3.84511        0.50502       -1.70358
H         -0.64448        4.01427       -1.81589
H          1.02002        4.54013       -2.10470
H          0.30465        4.73062       -0.49754
H          3.85578        0.61055       -2.79313
H          4.06848       -0.54057       -1.46849
H          4.64223        1.12707       -1.28463
H          2.48963        2.73958       -2.22080
O          0.00000       -2.13709        0.00000
C         -0.95517       -2.67820        0.84490
C         -1.41082       -4.03440        0.38893
C         -1.42194       -2.13198        1.97900
C         -1.08295       -0.86917        2.57493
O          0.00000       -0.13585        2.13277
C         -1.61316       -0.50468        3.91860
H         -1.87586       -3.96065       -0.59960
H         -2.14146       -4.48228        1.07032
H         -0.55647       -4.71559        0.31879
H         -2.70359       -0.59784        3.94519
H         -1.36193        0.53105        4.16893
H         -1.18805       -1.15436        4.69006
H         -2.16820       -2.69519        2.53992
O         -2.13709        0.00000        0.00000
C         -2.60191        1.01976       -0.81070
C         -3.62907        1.89496       -0.16779
C         -2.21956        1.13536       -2.08574
C         -1.28364        0.24802       -2.71091
O         -0.04806        0.00000       -2.13655
C         -1.34632        0.04729       -4.18682
H         -3.19650        2.41084        0.69548
H         -4.47651        1.29433        0.17798
H         -4.01219        2.65476       -0.85660
H         -0.98948        0.93912       -4.71183
H         -2.37063       -0.16153       -4.51129
H         -0.72126       -0.79913       -4.48815
H         -2.66211        1.90307       -2.71570
